Circuit: * C:\Users\Ben\Documents\GitHub\Four_Channel_MHz_LED_Driver\SPICE\SMPS removed for sim speed - magnet wire - SUM70060E and Cat5.asc

C10: Increased Cpar to 4.7e-011
C9: Increased Cpar to 4.7e-011
C8: Increased Cpar to 4.7e-011
C6: Increased Cpar to 4.7e-011
C5: Increased Cpar to 7.5e-009
C3: Increased Cpar to 7.5e-009
C4: Increased Cpar to 1e-007
C20: Increased Cpar to 7.5e-009
C13: Increased Cpar to 4.7e-011
C1: Increased Cpar to 2.2e-015
Instance "m:u1:2": Length shorter than recommended for a level 3 MOSFET.
Instance "m:u1:1": Length shorter than recommended for a level 3 MOSFET.
Direct Newton iteration failed to find .op point.  (Use ".option noopiter" to skip.)
Starting Gmin stepping
Gmin = 10
Gmin = 1.07374
Gmin = 0.115292
Gmin = 0.0123794
Gmin = 0.00132923
Gmin = 0.000142725
Gmin = 1.5325e-005
vernier = 0.5
vernier = 0.25
vernier = 0.125
vernier = 0.0625
Gmin = 5.02168e-006
vernier = 0.03125
vernier = 0.015625
vernier = 0.0078125
vernier = 0.00390625
vernier = 0.00195313
vernier = 0.000976563
vernier = 0.000488281
Gmin = 0
Gmin stepping failed

Starting source stepping with srcstepmethod=0
Source Step = 3.0303%
Source Step = 33.3333%
Source Step = 63.6364%
Source Step = 93.9394%
Source stepping succeeded in finding the operating point.


Date: Wed Sep 16 21:39:22 2020
Total elapsed time: 1.296 seconds.

tnom = 27
temp = 27
method = modified trap
totiter = 209006
traniter = 206866
tranpoints = 95293
accept = 66078
rejected = 29215
matrix size = 34
fillins = 40
solver = Normal
Thread vector: 4.0/3.3[2] 1.9/1.5[2] 0.5/0.5[1] 0.2/1.1[1]  2592/500
Matrix Compiler1: 6.11 KB object code size  0.7/0.4/[0.2]
Matrix Compiler2: 4.02 KB object code size  0.4/0.4/[0.2]

