Circuit: * C:\Users\Ben\Documents\GitHub\Four_Channel_MHz_LED_Driver\SPICE\SMPS removed for sim speed - magnet wire - SUM70060E.asc

C15: Increased Cpar to 2.7e-009
C4: Increased Cpar to 2.7e-009
C3: Increased Cpar to 2.7e-009
C20: Increased Cpar to 2.7e-009
C13: Increased Cpar to 2.2e-011
C17: Increased Cpar to 2.2e-011
C1: Increased Cpar to 2.2e-015
Instance "m:u1:2": Length shorter than recommended for a level 3 MOSFET.
Instance "m:u1:1": Length shorter than recommended for a level 3 MOSFET.
Direct Newton iteration failed to find .op point.  (Use ".option noopiter" to skip.)
Starting Gmin stepping
Gmin = 10
Gmin = 1.07374
Gmin = 0.115292
Gmin = 0.0123794
Gmin = 0.00132923
Gmin = 0.000142725
Gmin = 1.5325e-005
vernier = 0.5
vernier = 0.25
vernier = 0.125
vernier = 0.0625
Gmin = 5.02168e-006
vernier = 0.03125
vernier = 0.015625
vernier = 0.0078125
vernier = 0.00390625
vernier = 0.00195313
vernier = 0.000976563
vernier = 0.000488281
Gmin = 0
Gmin stepping failed

Starting source stepping with srcstepmethod=0
Source Step = 3.0303%
Source Step = 33.3333%
Source Step = 63.6364%
Source Step = 93.9394%
Source stepping succeeded in finding the operating point.


Date: Fri Aug 14 22:19:08 2020
Total elapsed time: 0.943 seconds.

tnom = 27
temp = 27
method = modified trap
totiter = 152000
traniter = 149857
tranpoints = 72676
accept = 49543
rejected = 23133
matrix size = 37
fillins = 45
solver = Normal
Thread vector: 5.6/4.3[2] 1.9/1.5[2] 1.1/1.2[1] 0.1/0.5[1]  2592/500
Matrix Compiler1: 6.97 KB object code size  0.7/0.4/[0.3]
Matrix Compiler2: 4.46 KB object code size  0.3/0.4/[0.2]

