Circuit: * C:\Users\Ben\Documents\GitHub\Four_Channel_MHz_LED_Driver\SPICE\SMPS removed for sim speed - magnet wire - SUM70060E and Cat5.asc

C15: Increased Cpar to 2.7e-009
C4: Increased Cpar to 2.7e-009
C3: Increased Cpar to 2.7e-009
C20: Increased Cpar to 2.7e-009
C13: Increased Cpar to 2.2e-011
C17: Increased Cpar to 2.2e-011
C1: Increased Cpar to 2.2e-015
WARNING: Specified period is not longer than the sum of Trise, Tfall, and Ton for v1.  Increasing period to 4e-005
Instance "m:u1:2": Length shorter than recommended for a level 3 MOSFET.
Instance "m:u1:1": Length shorter than recommended for a level 3 MOSFET.
Direct Newton iteration failed to find .op point.  (Use ".option noopiter" to skip.)
Starting Gmin stepping
Gmin = 10
Gmin = 1.07374
Gmin = 0.115292
Gmin = 0.0123794
Gmin = 0.00132923
Gmin = 0.000142725
Gmin = 1.5325e-005
vernier = 0.5
vernier = 0.25
vernier = 0.125
vernier = 0.0625
Gmin = 5.02168e-006
vernier = 0.03125
vernier = 0.015625
vernier = 0.0078125
vernier = 0.00390625
vernier = 0.00195313
vernier = 0.000976563
vernier = 0.000488281
Gmin = 0
Gmin stepping failed

Starting source stepping with srcstepmethod=0
Source Step = 3.0303%
Source Step = 12.1212%
Source Step = 19.697%
Source Step = 27.2727%
Source Step = 34.8485%
Source Step = 42.4242%
vernier = 0.375
Source Step = 52.6515%
Source Step = 64.0152%
Source Step = 75.3788%
Source Step = 86.7424%
Source Step = 98.1061%
Source stepping succeeded in finding the operating point.


Date: Fri Aug 21 16:08:26 2020
Total elapsed time: 2.756 seconds.

tnom = 27
temp = 27
method = modified trap
totiter = 507385
traniter = 504833
tranpoints = 251826
accept = 170821
rejected = 81005
matrix size = 34
fillins = 52
solver = Normal
Thread vector: 5.3/4.0[2] 1.8/1.4[2] 1.1/1.2[1] 0.1/0.5[1]  2592/500
Matrix Compiler1: 7.17 KB object code size  0.9/0.5/[0.3]
Matrix Compiler2: 4.24 KB object code size  0.4/0.4/[0.2]

