Circuit: * C:\Users\Ben\Documents\GitHub\Four_Channel_MHz_LED_Driver\SPICE\SMPS removed for sim speed - magnet wire.asc

C15: Increased Cpar to 2.7e-009
C4: Increased Cpar to 2.7e-009
C3: Increased Cpar to 2.7e-009
C20: Increased Cpar to 2.7e-009
C13: Increased Cpar to 2.2e-011
C17: Increased Cpar to 2.2e-011
C1: Increased Cpar to 2.2e-015
Per .tran options, skipping operating point for transient analysis.
Changing Tseed to 3.02734e-011
Changing Tseed to 3.02734e-013
Changing Tseed to 3.02734e-010
Changing Tseed to 3.02734e-014
Changing Tseed to 3.02734e-009
Changing Tseed to 3.02734e-015
Changing Tseed to 3.02734e-008
Changing Tseed to 3.02734e-016
Changing Tseed to 3.02734e-007
Changing Tseed to 3.02734e-017
Changing Tseed to 3.02734e-006
Changing Tseed to 3.02734e-018
Heightened Def Con from 0 Changing Tseed to 5e-010
Changing Tseed to 5e-012
Changing Tseed to 5e-009
Changing Tseed to 5e-013
Changing Tseed to 5e-008
Changing Tseed to 5e-014
Changing Tseed to 5e-007
Changing Tseed to 5e-015
Changing Tseed to 5e-006
Changing Tseed to 5e-016
Changing Tseed to 5e-005
Changing Tseed to 5e-017
+Changing Tseed to 5e-010
Changing Tseed to 5e-012
Changing Tseed to 5e-009
Changing Tseed to 5e-013
Changing Tseed to 5e-008
Changing Tseed to 5e-014
Changing Tseed to 5e-007
Changing Tseed to 5e-015
Changing Tseed to 5e-006
Changing Tseed to 5e-016
Changing Tseed to 5e-005
Changing Tseed to 5e-017
+Changing Tseed to 5e-010
Changing Tseed to 5e-012
Changing Tseed to 5e-009
Changing Tseed to 5e-013
Changing Tseed to 5e-008
Changing Tseed to 5e-014
Changing Tseed to 5e-007
Changing Tseed to 5e-015
Changing Tseed to 5e-006
Changing Tseed to 5e-016
Changing Tseed to 5e-005
Changing Tseed to 5e-017
+Changing Tseed to 5e-010
Changing Tseed to 5e-012
Changing Tseed to 5e-009
Changing Tseed to 5e-013
Changing Tseed to 5e-008
Changing Tseed to 5e-014
Changing Tseed to 5e-007
Changing Tseed to 5e-015
Changing Tseed to 5e-006
Changing Tseed to 5e-016
Changing Tseed to 5e-005
Changing Tseed to 5e-017
+Changing Tseed to 5e-010
Changing Tseed to 5e-012
Changing Tseed to 5e-009
Changing Tseed to 5e-013
Changing Tseed to 5e-008
Changing Tseed to 5e-014
Changing Tseed to 5e-007
Changing Tseed to 5e-015
Changing Tseed to 5e-006
Changing Tseed to 5e-016
Changing Tseed to 5e-005
Changing Tseed to 5e-017
+Changing Tseed to 5e-010
Changing Tseed to 5e-012
Changing Tseed to 5e-009
Changing Tseed to 5e-013
Changing Tseed to 5e-008
Changing Tseed to 5e-014
Changing Tseed to 5e-007
Changing Tseed to 5e-015
Changing Tseed to 5e-006
Changing Tseed to 5e-016
Changing Tseed to 5e-005
Changing Tseed to 5e-017
+Changing Tseed to 5e-010
Changing Tseed to 5e-012
Changing Tseed to 5e-009
Changing Tseed to 5e-013
Changing Tseed to 5e-008
Changing Tseed to 5e-014
Changing Tseed to 5e-007
Changing Tseed to 5e-015
Changing Tseed to 5e-006
Changing Tseed to 5e-016
Changing Tseed to 5e-005
Changing Tseed to 5e-017
+Changing Tseed to 5e-010
Changing Tseed to 5e-012
Changing Tseed to 5e-009
Changing Tseed to 5e-013
Changing Tseed to 5e-008
Changing Tseed to 5e-014
Changing Tseed to 5e-007
Changing Tseed to 5e-015
Changing Tseed to 5e-006
Changing Tseed to 5e-016
Changing Tseed to 5e-005
Changing Tseed to 5e-017
+Changing Tseed to 5e-010
Changing Tseed to 5e-012
Changing Tseed to 5e-009
Changing Tseed to 5e-013
Changing Tseed to 5e-008
Changing Tseed to 5e-014
Changing Tseed to 5e-007
Changing Tseed to 5e-015
Changing Tseed to 5e-006
Changing Tseed to 5e-016
Changing Tseed to 5e-005
Changing Tseed to 5e-017
+Changing Tseed to 5e-010
Changing Tseed to 5e-012
Changing Tseed to 5e-009
Changing Tseed to 5e-013
Changing Tseed to 5e-008
Changing Tseed to 5e-014
Changing Tseed to 5e-007
Changing Tseed to 5e-015
Changing Tseed to 5e-006
Changing Tseed to 5e-016
Changing Tseed to 5e-005
Changing Tseed to 5e-017
+Changing Tseed to 5e-010
Changing Tseed to 5e-012
Changing Tseed to 5e-009
Changing Tseed to 5e-013
Changing Tseed to 5e-008
Changing Tseed to 5e-014
Changing Tseed to 5e-007
Changing Tseed to 5e-015
Changing Tseed to 5e-006
Changing Tseed to 5e-016
Changing Tseed to 5e-005
Changing Tseed to 5e-017
+Changing Tseed to 5e-010
Changing Tseed to 5e-012
Changing Tseed to 5e-009
Changing Tseed to 5e-013
Changing Tseed to 5e-008
Changing Tseed to 5e-014
Changing Tseed to 5e-007
Changing Tseed to 5e-015
Changing Tseed to 5e-006
Changing Tseed to 5e-016
Changing Tseed to 5e-005
Changing Tseed to 5e-017
+Changing Tseed to 5e-010
Changing Tseed to 5e-012
Changing Tseed to 5e-009
Changing Tseed to 5e-013
Changing Tseed to 5e-008
Changing Tseed to 5e-014
Changing Tseed to 5e-007
Changing Tseed to 5e-015
Changing Tseed to 5e-006
Changing Tseed to 5e-016
Changing Tseed to 5e-005
Changing Tseed to 5e-017
+Changing Tseed to 5e-010
Changing Tseed to 5e-012
Changing Tseed to 5e-009
Changing Tseed to 5e-013
Changing Tseed to 5e-008
Changing Tseed to 5e-014
Changing Tseed to 5e-007
Changing Tseed to 5e-015
Changing Tseed to 5e-006
Changing Tseed to 5e-016
Changing Tseed to 5e-005
Changing Tseed to 5e-017
+Changing Tseed to 5e-010
Changing Tseed to 5e-012
Changing Tseed to 5e-009
Changing Tseed to 5e-013
Changing Tseed to 5e-008
Changing Tseed to 5e-014
Changing Tseed to 5e-007
Changing Tseed to 5e-015
Changing Tseed to 5e-006
Changing Tseed to 5e-016
Changing Tseed to 5e-005
Changing Tseed to 5e-017
+Changing Tseed to 5e-010
Changing Tseed to 5e-012
Changing Tseed to 5e-009
Changing Tseed to 5e-013
Changing Tseed to 5e-008
Changing Tseed to 5e-014
Changing Tseed to 5e-007
Changing Tseed to 5e-015
Changing Tseed to 5e-006
Changing Tseed to 5e-016
Changing Tseed to 5e-005
Changing Tseed to 5e-017
to 2e-016

Date: Fri Aug 14 22:19:22 2020
Total elapsed time: 1.101 seconds.

tnom = 27
temp = 27
method = modified trap
totiter = 234387
traniter = 234387
tranpoints = 77090
accept = 51593
rejected = 25309
matrix size = 35
fillins = 27
solver = Normal
Thread vector: 3.5/2.3[2] 1.6/1.3[2] 0.4/0.4[1] 0.1/0.6[1]  2592/500
Matrix Compiler1: 4.79 KB object code size  0.5/0.3/[0.2]
Matrix Compiler2: 3.79 KB object code size  0.3/0.3/[0.2]

